/*--------------------------------*- C++ -*----------------------------------*\
  =========                 |
  \\      /  F ield         | OpenFOAM: The Open Source CFD Toolbox
   \\    /   O peration     | Website:  https://openfoam.org
    \\  /    A nd           | Version:  dev
     \\/     M anipulation  |
\*---------------------------------------------------------------------------*/
FoamFile
{
    version     2.0;
    format      ascii;
    class       polyBoundaryMesh;
    location    "constant/polyMesh";
    object      boundary;
}
// * * * * * * * * * * * * * * * * * * * * * * * * * * * * * * * * * * * * * //

7
(
    lowerOutlet
    {
        type            patch;
        nFaces          148;
        startFace       18974;
    }
    top
    {
        type            patch;
        nFaces          100;
        startFace       19122;
    }
    sides
    {
        type            patch;
        nFaces          100;
        startFace       19222;
    }
    front
    {
        type            empty;
        inGroups        1(empty);
        nFaces          9575;
        startFace       19322;
    }
    back
    {
        type            empty;
        inGroups        1(empty);
        nFaces          9575;
        startFace       28897;
    }
    roller
    {
        type            wall;
        inGroups        1(wall);
        nFaces          142;
        startFace       38472;
    }
    burner
    {
        type            wall;
        inGroups        1(wall);
        nFaces          16;
        startFace       38614;
    }
)

// ************************************************************************* //
