/*--------------------------------*- C++ -*----------------------------------*\
| =========                 |                                                 |
| \\      /  F ield         | OpenFOAM: The Open Source CFD Toolbox           |
|  \\    /   O peration     | Version:  2.2.2                                 |
|   \\  /    A nd           | Web:      www.OpenFOAM.org                      |
|    \\/     M anipulation  |                                                 |
\*---------------------------------------------------------------------------*/
FoamFile
{
    version     2.0;
    format      ascii;
    class       dictionary;
    location    "system";
    object      fvSchemes;
}
// * * * * * * * * * * * * * * * * * * * * * * * * * * * * * * * * * * * * * //

ddtSchemes
{
    //default	    backward;
    //default         CrankNicolson 1;
    //default	    Euler;
    default	    localEuler;
}

gradSchemes
{
    default         Gauss linear;
    grad(U)	    cellLimited Gauss linear 1.0;
}

divSchemes
{
    default        none;
    div(phi,U)      Gauss limitedLinearV 1;
    div(phi,h)      Gauss limitedLinear 1;
    div(phi,e)      Gauss limitedLinear 1;
    div(phi,K)      Gauss limitedLinear 1;
    div(phi,k)      Gauss limitedLinear 1;
    div(phi,omega)   Gauss linear;
    div(phi,epsilon)   Gauss linear;
    div(phi,Yi_h) Gauss limitedLinear 1;
    div(((rho*nuEff)*dev2(T(grad(U))))) Gauss linear;
    //div((muEff*dev2(T(grad(U))))) Gauss linear;
    div(Ji,Ii_h)    Gauss upwind;
}

laplacianSchemes
{
    default         Gauss linear corrected;
}

interpolationSchemes
{
    default         linear;
}

snGradSchemes
{
    default         corrected;
}

fluxRequired
{
    default         no;
    p_rgh;
}

wallDist
{
    method meshWave;
}

// ************************************************************************* //
