/*--------------------------------*- C++ -*----------------------------------*\
  =========                 |
  \\      /  F ield         | OpenFOAM: The Open Source CFD Toolbox
   \\    /   O peration     | Website:  https://openfoam.org
    \\  /    A nd           | Version:  dev
     \\/     M anipulation  |
\*---------------------------------------------------------------------------*/
FoamFile
{
    version     2.0;
    format      ascii;
    class       polyBoundaryMesh;
    location    "constant/polyMesh";
    object      boundary;
}
// * * * * * * * * * * * * * * * * * * * * * * * * * * * * * * * * * * * * * //

7
(
    lowerOutlet
    {
        type            patch;
        nFaces          146;
        startFace       19527;
    }
    top
    {
        type            patch;
        nFaces          100;
        startFace       19673;
    }
    sides
    {
        type            patch;
        nFaces          100;
        startFace       19773;
    }
    front
    {
        type            empty;
        inGroups        1(empty);
        nFaces          9848;
        startFace       19873;
    }
    back
    {
        type            empty;
        inGroups        1(empty);
        nFaces          9848;
        startFace       29721;
    }
    roller
    {
        type            wall;
        inGroups        1(wall);
        nFaces          142;
        startFace       39569;
    }
    burner
    {
        type            wall;
        inGroups        1(wall);
        nFaces          14;
        startFace       39711;
    }
)

// ************************************************************************* //
