/*--------------------------------*- C++ -*----------------------------------*\
| =========                 |                                                 |
| \\      /  F ield         | OpenFOAM: The Open Source CFD Toolbox           |
|  \\    /   O peration     | Version:  2.2.1                                 |
|   \\  /    A nd           | Web:      www.OpenFOAM.org                      |
|    \\/     M anipulation  |                                                 |
\*---------------------------------------------------------------------------*/
FoamFile
{
    version     2.0;
    format      ascii;
    class       volScalarField;
    object      G;
}
// * * * * * * * * * * * * * * * * * * * * * * * * * * * * * * * * * * * * * //

dimensions      [1 0 -3 0 0 0 0];

internalField   uniform 0;

boundaryField
{

    roller
    {
        type            greyDiffusiveRadiation;
        emissivityMode  lookup;
        emissivity      uniform 1;
        value           uniform 0;
    }

    burner
    {
        type            greyDiffusiveRadiation;
        emissivityMode  lookup;
        emissivity      uniform 1;
        value           uniform 0;
    }

    top
    {
        type            greyDiffusiveRadiation;
        emissivityMode  lookup;
        emissivity      uniform 1;
        value           uniform 0;
    }

    sides
    {
        type            greyDiffusiveRadiation;
        emissivityMode  lookup;
        emissivity      uniform 1;
        value           uniform 0;
    }

    lowerOutlet
    {
        type            greyDiffusiveRadiation;
        emissivityMode  lookup;
        emissivity      uniform 1;
        value           uniform 0;
    }
}

// ************************************************************************* //
