/*--------------------------------*- C++ -*----------------------------------*\
  =========                 |
  \\      /  F ield         | OpenFOAM: The Open Source CFD Toolbox
   \\    /   O peration     | Website:  https://openfoam.org
    \\  /    A nd           | Version:  dev
     \\/     M anipulation  |
\*---------------------------------------------------------------------------*/
FoamFile
{
    version     2.0;
    format      ascii;
    class       polyBoundaryMesh;
    location    "constant/polyMesh";
    object      boundary;
}
// * * * * * * * * * * * * * * * * * * * * * * * * * * * * * * * * * * * * * //

7
(
    lowerOutlet
    {
        type            patch;
        nFaces          150;
        startFace       19254;
    }
    top
    {
        type            patch;
        nFaces          100;
        startFace       19404;
    }
    sides
    {
        type            patch;
        nFaces          100;
        startFace       19504;
    }
    front
    {
        type            empty;
        inGroups        1(empty);
        nFaces          9714;
        startFace       19604;
    }
    back
    {
        type            empty;
        inGroups        1(empty);
        nFaces          9714;
        startFace       29318;
    }
    roller
    {
        type            wall;
        inGroups        1(wall);
        nFaces          144;
        startFace       39032;
    }
    burner
    {
        type            wall;
        inGroups        1(wall);
        nFaces          14;
        startFace       39176;
    }
)

// ************************************************************************* //
