/*--------------------------------*- C++ -*----------------------------------*\
  =========                 |
  \\      /  F ield         | OpenFOAM: The Open Source CFD Toolbox
   \\    /   O peration     | Website:  https://openfoam.org
    \\  /    A nd           | Version:  dev
     \\/     M anipulation  |
\*---------------------------------------------------------------------------*/
FoamFile
{
    version     2.0;
    format      ascii;
    class       polyBoundaryMesh;
    location    "constant/polyMesh";
    object      boundary;
}
// * * * * * * * * * * * * * * * * * * * * * * * * * * * * * * * * * * * * * //

7
(
    lowerOutlet
    {
        type            patch;
        nFaces          144;
        startFace       19503;
    }
    top
    {
        type            patch;
        nFaces          100;
        startFace       19647;
    }
    sides
    {
        type            patch;
        nFaces          100;
        startFace       19747;
    }
    front
    {
        type            empty;
        inGroups        1(empty);
        nFaces          9836;
        startFace       19847;
    }
    back
    {
        type            empty;
        inGroups        1(empty);
        nFaces          9836;
        startFace       29683;
    }
    roller
    {
        type            wall;
        inGroups        1(wall);
        nFaces          144;
        startFace       39519;
    }
    burner
    {
        type            wall;
        inGroups        1(wall);
        nFaces          16;
        startFace       39663;
    }
)

// ************************************************************************* //
