/*--------------------------------*- C++ -*----------------------------------*\
  =========                 |
  \\      /  F ield         | OpenFOAM: The Open Source CFD Toolbox
   \\    /   O peration     | Website:  https://openfoam.org
    \\  /    A nd           | Version:  dev
     \\/     M anipulation  |
\*---------------------------------------------------------------------------*/
FoamFile
{
    version     2.0;
    format      ascii;
    class       polyBoundaryMesh;
    location    "constant/polyMesh";
    object      boundary;
}
// * * * * * * * * * * * * * * * * * * * * * * * * * * * * * * * * * * * * * //

7
(
    lowerOutlet
    {
        type            patch;
        nFaces          146;
        startFace       19523;
    }
    top
    {
        type            patch;
        nFaces          100;
        startFace       19669;
    }
    sides
    {
        type            patch;
        nFaces          100;
        startFace       19769;
    }
    front
    {
        type            empty;
        inGroups        1(empty);
        nFaces          9846;
        startFace       19869;
    }
    back
    {
        type            empty;
        inGroups        1(empty);
        nFaces          9846;
        startFace       29715;
    }
    roller
    {
        type            wall;
        inGroups        1(wall);
        nFaces          142;
        startFace       39561;
    }
    burner
    {
        type            wall;
        inGroups        1(wall);
        nFaces          14;
        startFace       39703;
    }
)

// ************************************************************************* //
